3
Lattice="3.1989482918852916 0.0 0.0 1.5994741363639602 2.7703704049879736 0.0 0.0 0.0 12.73104751283661" Properties=species:S:1:pos:R:3:momenta:R:3:id:I:1:type:I:1 comment="(written by ASE)" pbc="T T T"
H       -0.00096332       0.00488984       0.05446964       0.00000000       0.00000000       0.00000000        1        1
He       1.59850542       0.92834360       1.58428981       0.00000000       0.00000000       0.00000000        2        2
Li       1.59850543       0.92834347      -1.63875945       0.00000000       0.00000000       0.00000000        3        3
