27
Lattice="9.594137763099999 0.0 0.0 4.7970688815499996 8.308763156288677 0.0 0.0 0.0 19.999977957509312" Properties=species:S:1:pos:R:3:forces:R:3 energy=-6822.628927471157 virial="1.4843195951519146 -3.9655047172253814 4.12652558060478 -3.9655047172253814 3.943547326764554 -4.914063985133113 4.12652558060478 -4.914063985133113 -1.7302423683131787" pbc="T T T"
Mo       0.02448040      -0.08952578      -0.00928425      -0.78717895       1.37946957       2.76233661
S        1.58018423       0.86708651       1.67713779      -0.15328602       0.63163909      -1.78429645
Se       1.61216341       0.85660779      -1.57589949      -0.99186371       1.20901550      -1.94077656
Mo       3.11922976       0.03500325      -0.01809262       2.56268968      -1.47632804       2.85282155
S        4.88011862       1.02416077       1.54597345      -0.91308192      -2.74477261       1.18756553
Se       4.71529613       0.95906167      -1.72301792       0.67879936      -0.51367776       0.83610479
Mo       6.43153387      -0.01973226       0.04934457      -0.41383552       1.31209964      -0.92900067
S        8.07770274       0.90951563       1.66388541      -0.44183153      -0.96026146      -0.76417192
Se       8.08334121       1.02552794      -1.61655465      -0.77052024      -1.31280875      -0.45528099
Mo       1.52132707       2.86589655      -0.02490063       0.92667227      -3.42244967       2.91277307
S        3.13567987       3.60106367       1.54253875      -0.35790085       1.28862158       0.37837148
Se       3.17757267       3.60147718      -1.70437459       0.14588175       0.72092282       0.24326601
Mo       4.70885846       2.67658982       0.13204508       1.84957813       3.15848806      -2.86585244
S        6.45788896       3.74837206       1.63286468      -1.59474806      -0.48063801      -0.25750737
Se       6.40965252       3.72883264      -1.59062745      -0.74476418      -1.93206900      -0.73997164
Mo       7.91066976       2.68285384       0.14657732       2.57631088       2.26083252      -0.62761017
S        9.55347397       3.73384749       1.67975891      -0.12087646      -0.58799713      -0.96677433
Se       9.68625492       3.59791103      -1.69460584      -2.33223729       1.25582558      -0.14437020
Mo       3.10555332       5.53573786      -0.01529977       1.13917911      -1.29874043       1.16545273
S        4.73154572       6.43868821       1.61571708       0.01367160      -0.54082607      -1.10563671
Se       4.74628135       6.39030306      -1.57861271      -0.29440506       0.24940350      -2.33317035
Mo       6.30733583       5.48100234      -0.04561629       1.83644878       1.51531527       3.84500793
S        7.95738074       6.51943248       1.67292117      -0.31691972      -0.38056798      -1.73477283
Se       8.06511331       6.37860589      -1.63582064      -0.91127520       0.54189179      -0.14877039
Mo       9.53943775       5.49807511       0.09922065       0.72548062       0.68699939      -0.81331887
S       11.17879094       6.46375674       1.49242569      -0.26389065      -0.08380110       1.04320587
Se      11.23413473       6.53398870      -1.72202780      -1.04609734      -0.47558604       0.38437681
