3
Lattice="3.137999817 -3.16107e-06 0.0 1.568998312 2.6903964186000002 0.0 0.0 0.0 12.731047254" Properties=species:S:1:pos:R:3 virial="-9.9681e-05 0.0 0.0 0.0 0.000199362 0.0 0.0 0.0 -0.048644232" config_type=ref pbc="T T T"
Mo      -0.00094528       0.00475030       0.00000000
S        1.56804967       0.90154280       1.56247708
S        1.56804967       0.90154280      -1.56247708
